Version 4
SHEET 1 1528 680
WIRE 288 -144 240 -144
WIRE 416 -144 368 -144
WIRE -64 -96 -160 -96
WIRE 96 -96 16 -96
WIRE 240 -96 240 -144
WIRE 240 -96 96 -96
WIRE 416 -96 416 -144
WIRE 544 -96 416 -96
WIRE 1472 -96 544 -96
WIRE 240 -32 240 -96
WIRE 288 -32 240 -32
WIRE 416 -32 416 -96
WIRE 416 -32 352 -32
WIRE 544 -32 544 -96
WIRE 96 -16 96 -96
WIRE 1472 0 1472 -96
WIRE -160 16 -160 -96
WIRE 544 96 544 48
WIRE 96 112 96 64
WIRE -160 176 -160 96
WIRE -80 176 -80 -64
WIRE -80 176 -160 176
WIRE 16 176 16 -64
WIRE 96 176 16 176
WIRE 336 176 96 176
WIRE 544 176 544 160
WIRE 544 176 336 176
WIRE 1008 176 544 176
WIRE 1408 176 1344 176
WIRE 1472 176 1472 80
WIRE 1472 176 1408 176
FLAG -160 176 0
FLAG -160 -96 Input
FLAG 1472 -96 Output
FLAG 1408 176 0
FLAG 336 176 0
SYMBOL cap 80 112 R0
SYMATTR InstName C1
SYMATTR Value 0.113pF
SYMBOL ind 80 -32 R0
SYMATTR InstName L1
SYMATTR Value 24.9nH
SYMBOL ind 272 -128 R270
WINDOW 0 32 56 VTop 2
WINDOW 3 5 56 VBottom 2
SYMATTR InstName L2
SYMATTR Value 0.436nH
SYMBOL cap 352 -48 R90
WINDOW 0 0 32 VBottom 2
WINDOW 3 32 32 VTop 2
SYMATTR InstName C2
SYMATTR Value 6.45pF
SYMBOL cap 528 96 R0
SYMATTR InstName C3
SYMATTR Value 0.113pF
SYMBOL ind 528 -48 R0
SYMATTR InstName L3
SYMATTR Value 24.9nH
SYMBOL voltage -160 0 R0
WINDOW 123 24 124 Left 2
WINDOW 39 24 152 Left 2
SYMATTR Value2 AC 1
SYMATTR SpiceLine Rser=50
SYMATTR InstName V1
SYMATTR Value 0
SYMBOL res 1456 -16 R0
SYMATTR InstName R1
SYMATTR Value 50
SYMBOL res 32 -112 R90
WINDOW 0 0 56 VBottom 2
WINDOW 3 32 56 VTop 2
SYMATTR InstName R2
SYMATTR Value 50
TEXT -168 -328 Left 2 !.ac dec 10000 2e9 4e9
